mvpmarch-behavior/feederdata/p1uhs0_1247--p1udt104/Loads_XZ2_G3.dss
New Load.TR(R:P1UDT1-P1UDT1LV)_G3 Bus1= G3_P1UDT1.1.2.3 Phase=3 Conn=Wye Model=1 kV=7.2 kW=82.5 kvar=17.4
New Load.TR(R:P1UDT2-P1UDT2LV)_G3 Bus1= G3_P1UDT2.2 Phase=1 Conn=Wye Model=1 kV=7.2 kW=19.1 kvar=3.9
New Load.TR(R:P1UDT61-P1UDT61LV)_G3 Bus1= G3_P1UDT61.1.2.3 Phase=3 Conn=Wye Model=1 kV=7.2 kW=311.3 kvar=68.8
New Load.TR(R:P1UDT62-P1UDT62LV)_G3 Bus1= G3_P1UDT62.1.2.3 Phase=3 Conn=Wye Model=1 kV=7.2 kW=73.4 kvar=15.9
New Load.TR(R:P1UDT104-P1UDT104LV)_G3 Bus1= G3_P1UDT104.1 Phase=1 Conn=Wye Model=1 kV=7.2 kW=21.9 kvar=4.5
New Load.TR(R:P1UDT175-P1UDT175LV)_G3 Bus1= G3_P1UDT175.1.2.3 Phase=3 Conn=Wye Model=1 kV=7.2 kW=209.3 kvar=46.6
New Load.TR(R:P1UDT201-P1UDT201LV)_G3 Bus1= G3_P1UDT201.1.2.3 Phase=3 Conn=Wye Model=1 kV=7.2 kW=134.4 kvar=29.6
New Load.TR(R:P1UDT228-P1UDT228LV)_G3 Bus1= G3_P1UDT228.1.2.3 Phase=3 Conn=Wye Model=1 kV=7.2 kW=304.3 kvar=67.9
New Load.TR(R:P1UDT258-P1UDT258LV)_G3 Bus1= G3_P1UDT258.1.2.3 Phase=3 Conn=Wye Model=1 kV=7.2 kW=62.8 kvar=13.4
New Load.TR(R:P1UDT259-P1UDT259LV)_G3 Bus1= G3_P1UDT259.1.2.3 Phase=3 Conn=Wye Model=1 kV=7.2 kW=71.6 kvar=15.5
New Load.TR(R:P1UDT454-P1UDT454LV)_G3 Bus1= G3_P1UDT454.1.2.3 Phase=3 Conn=Wye Model=1 kV=7.2 kW=300.1 kvar=67.2
New Load.TR(R:P1UDT471-P1UDT471LV)_G3 Bus1= G3_P1UDT471.2 Phase=1 Conn=Wye Model=1 kV=7.2 kW=8.9 kvar=1.8
